Substation_2_mod.glm
#set profiler=1

#include "support/schedules/appliance_schedules_mod.glm";

#include "support/schedules/water_and_setpoint_schedule_v5.glm";

#include "support/schedules/commercial_schedules.glm";

#set minimum_timestep=60;

#set relax_naming_rules=1;

#set warn=0;

#ifdef WANT_VI_DUMP

#endif

#ifdef USE_HELICS

#endif


clock {
	timezone EST+5EDT;
	starttime '2022-07-09 00:00:00';
	stoptime '2022-07-11 00:00:00';
}

module tape;

module powerflow {
	lu_solver "KLU";
	solver_method FBS;
	default_maximum_voltage_error 0.01;
};

module climate;

module generators;

module connection;

module residential {
	implicit_enduses NONE;
};

object metrics_collector_writer {
	name OBJECT_1;
	interval 300;
	interim 7200;
	filename $;
}

object climate {
	name weather_Substation_2;
	interpolate QUADRATIC;
	latitude 29.65;
	longitude -95.42;
	tz_meridian -90.00;
}

object transformer_configuration {
	name feeder1_XF1_PADMOUNT_AS_5;
	power_rating 5.00;
	powerA_rating 5.00;
	powerB_rating 0.0;
	powerC_rating 0.0;
	install_type PADMOUNT;
	connect_type SINGLE_PHASE_CENTER_TAPPED;
	primary_voltage 7200.0;
	secondary_voltage 120.0;
	resistance 0.01050;
	resistance1 0.02100;
	resistance2 0.02100;
	reactance 0.01224;
	reactance1 0.00612;
	reactance2 0.00612;
	shunt_resistance 111.11;
	shunt_reactance 29.59;
}

object transformer_configuration {
	name feeder1_XF1_PADMOUNT_BS_15;
	power_rating 15.00;
	powerA_rating 0.0;
	powerB_rating 15.00;
	powerC_rating 0.0;
	install_type PADMOUNT;
	connect_type SINGLE_PHASE_CENTER_TAPPED;
	primary_voltage 7200.0;
	secondary_voltage 120.0;
	resistance 0.00850;
	resistance1 0.01700;
	resistance2 0.01700;
	reactance 0.01176;
	reactance1 0.00588;
	reactance2 0.00588;
	shunt_resistance 166.67;
	shunt_reactance 39.53;
}

object transformer_configuration {
	name feeder1_XF1_PADMOUNT_CS_5;
	power_rating 5.00;
	powerA_rating 0.0;
	powerB_rating 0.0;
	powerC_rating 5.00;
	install_type PADMOUNT;
	connect_type SINGLE_PHASE_CENTER_TAPPED;
	primary_voltage 7200.0;
	secondary_voltage 120.0;
	resistance 0.01050;
	resistance1 0.02100;
	resistance2 0.02100;
	reactance 0.01224;
	reactance1 0.00612;
	reactance2 0.00612;
	shunt_resistance 111.11;
	shunt_reactance 29.59;
}

object transformer_configuration {
	name feeder1_XF1_PADMOUNT_AS_25;
	power_rating 25.00;
	powerA_rating 25.00;
	powerB_rating 0.0;
	powerC_rating 0.0;
	install_type PADMOUNT;
	connect_type SINGLE_PHASE_CENTER_TAPPED;
	primary_voltage 7200.0;
	secondary_voltage 120.0;
	resistance 0.00800;
	resistance1 0.01600;
	resistance2 0.01600;
	reactance 0.01208;
	reactance1 0.00604;
	reactance2 0.00604;
	shunt_resistance 192.31;
	shunt_reactance 51.81;
}

object transformer_configuration {
	name feeder1_XF1_PADMOUNT_BS_25;
	power_rating 25.00;
	powerA_rating 0.0;
	powerB_rating 25.00;
	powerC_rating 0.0;
	install_type PADMOUNT;
	connect_type SINGLE_PHASE_CENTER_TAPPED;
	primary_voltage 7200.0;
	secondary_voltage 120.0;
	resistance 0.00800;
	resistance1 0.01600;
	resistance2 0.01600;
	reactance 0.01208;
	reactance1 0.00604;
	reactance2 0.00604;
	shunt_resistance 192.31;
	shunt_reactance 51.81;
}

object transformer_configuration {
	name feeder1_XF1_PADMOUNT_CS_15;
	power_rating 15.00;
	powerA_rating 0.0;
	powerB_rating 0.0;
	powerC_rating 15.00;
	install_type PADMOUNT;
	connect_type SINGLE_PHASE_CENTER_TAPPED;
	primary_voltage 7200.0;
	secondary_voltage 120.0;
	resistance 0.00850;
	resistance1 0.01700;
	resistance2 0.01700;
	reactance 0.01176;
	reactance1 0.00588;
	reactance2 0.00588;
	shunt_resistance 166.67;
	shunt_reactance 39.53;
}

object transformer_configuration {
	name feeder1_XF1_PADMOUNT_CS_25;
	power_rating 25.00;
	powerA_rating 0.0;
	powerB_rating 0.0;
	powerC_rating 25.00;
	install_type PADMOUNT;
	connect_type SINGLE_PHASE_CENTER_TAPPED;
	primary_voltage 7200.0;
	secondary_voltage 120.0;
	resistance 0.00800;
	resistance1 0.01600;
	resistance2 0.01600;
	reactance 0.01208;
	reactance1 0.00604;
	reactance2 0.00604;
	shunt_resistance 192.31;
	shunt_reactance 51.81;
}

object transformer_configuration {
	name feeder1_XF1_PADMOUNT_BS_37p5;
	power_rating 37.50;
	powerA_rating 0.0;
	powerB_rating 37.50;
	powerC_rating 0.0;
	install_type PADMOUNT;
	connect_type SINGLE_PHASE_CENTER_TAPPED;
	primary_voltage 7200.0;
	secondary_voltage 120.0;
	resistance 0.00725;
	resistance1 0.01450;
	resistance2 0.01450;
	reactance 0.01320;
	reactance1 0.00660;
	reactance2 0.00660;
	shunt_resistance 212.77;
	shunt_reactance 57.47;
}

object transformer_configuration {
	name feeder1_XF1_PADMOUNT_AS_50;
	power_rating 50.00;
	powerA_rating 50.00;
	powerB_rating 0.0;
	powerC_rating 0.0;
	install_type PADMOUNT;
	connect_type SINGLE_PHASE_CENTER_TAPPED;
	primary_voltage 7200.0;
	secondary_voltage 120.0;
	resistance 0.00650;
	resistance1 0.01300;
	resistance2 0.01300;
	reactance 0.01416;
	reactance1 0.00708;
	reactance2 0.00708;
	shunt_resistance 222.22;
	shunt_reactance 64.94;
}

object transformer_configuration {
	name feeder1_XF1_PADMOUNT_BS_75;
	power_rating 75.00;
	powerA_rating 0.0;
	powerB_rating 75.00;
	powerC_rating 0.0;
	install_type PADMOUNT;
	connect_type SINGLE_PHASE_CENTER_TAPPED;
	primary_voltage 7200.0;
	secondary_voltage 120.0;
	resistance 0.00625;
	resistance1 0.01250;
	resistance2 0.01250;
	reactance 0.01352;
	reactance1 0.00676;
	reactance2 0.00676;
	shunt_resistance 238.10;
	shunt_reactance 67.11;
}

object transformer_configuration {
	name feeder1_XF1_PADMOUNT_CS_50;
	power_rating 50.00;
	powerA_rating 0.0;
	powerB_rating 0.0;
	powerC_rating 50.00;
	install_type PADMOUNT;
	connect_type SINGLE_PHASE_CENTER_TAPPED;
	primary_voltage 7200.0;
	secondary_voltage 120.0;
	resistance 0.00650;
	resistance1 0.01300;
	resistance2 0.01300;
	reactance 0.01416;
	reactance1 0.00708;
	reactance2 0.00708;
	shunt_resistance 222.22;
	shunt_reactance 64.94;
}

object transformer_configuration {
	name feeder1_XF1_PADMOUNT_CS_37p5;
	power_rating 37.50;
	powerA_rating 0.0;
	powerB_rating 0.0;
	powerC_rating 37.50;
	install_type PADMOUNT;
	connect_type SINGLE_PHASE_CENTER_TAPPED;
	primary_voltage 7200.0;
	secondary_voltage 120.0;
	resistance 0.00725;
	resistance1 0.01450;
	resistance2 0.01450;
	reactance 0.01320;
	reactance1 0.00660;
	reactance2 0.00660;
	shunt_resistance 212.77;
	shunt_reactance 57.47;
}

object transformer_configuration {
	name feeder1_XF1_PADMOUNT_CS_100;
	power_rating 100.00;
	powerA_rating 0.0;
	powerB_rating 0.0;
	powerC_rating 100.00;
	install_type PADMOUNT;
	connect_type SINGLE_PHASE_CENTER_TAPPED;
	primary_voltage 7200.0;
	secondary_voltage 120.0;
	resistance 0.00600;
	resistance1 0.01200;
	resistance2 0.01200;
	reactance 0.01752;
	reactance1 0.00876;
	reactance2 0.00876;
	shunt_resistance 250.00;
	shunt_reactance 68.97;
}

object transformer_configuration {
	name feeder1_XF1_PADMOUNT_BS_5;
	power_rating 5.00;
	powerA_rating 0.0;
	powerB_rating 5.00;
	powerC_rating 0.0;
	install_type PADMOUNT;
	connect_type SINGLE_PHASE_CENTER_TAPPED;
	primary_voltage 7200.0;
	secondary_voltage 120.0;
	resistance 0.01050;
	resistance1 0.02100;
	resistance2 0.02100;
	reactance 0.01224;
	reactance1 0.00612;
	reactance2 0.00612;
	shunt_resistance 111.11;
	shunt_reactance 29.59;
}

object transformer_configuration {
	name feeder1_XF1_PADMOUNT_AS_15;
	power_rating 15.00;
	powerA_rating 15.00;
	powerB_rating 0.0;
	powerC_rating 0.0;
	install_type PADMOUNT;
	connect_type SINGLE_PHASE_CENTER_TAPPED;
	primary_voltage 7200.0;
	secondary_voltage 120.0;
	resistance 0.00850;
	resistance1 0.01700;
	resistance2 0.01700;
	reactance 0.01176;
	reactance1 0.00588;
	reactance2 0.00588;
	shunt_resistance 166.67;
	shunt_reactance 39.53;
}

object transformer_configuration {
	name feeder1_XF1_POLETOP_AS_5;
	power_rating 5.00;
	powerA_rating 5.00;
	powerB_rating 0.0;
	powerC_rating 0.0;
	install_type POLETOP;
	connect_type SINGLE_PHASE_CENTER_TAPPED;
	primary_voltage 7200.0;
	secondary_voltage 120.0;
	resistance 0.01050;
	resistance1 0.02100;
	resistance2 0.02100;
	reactance 0.01224;
	reactance1 0.00612;
	reactance2 0.00612;
	shunt_resistance 111.11;
	shunt_reactance 29.59;
}

object transformer_configuration {
	name feeder1_XF1_POLETOP_BS_5;
	power_rating 5.00;
	powerA_rating 0.0;
	powerB_rating 5.00;
	powerC_rating 0.0;
	install_type POLETOP;
	connect_type SINGLE_PHASE_CENTER_TAPPED;
	primary_voltage 7200.0;
	secondary_voltage 120.0;
	resistance 0.01050;
	resistance1 0.02100;
	resistance2 0.02100;
	reactance 0.01224;
	reactance1 0.00612;
	reactance2 0.00612;
	shunt_resistance 111.11;
	shunt_reactance 29.59;
}

object transformer_configuration {
	name feeder1_XF1_POLETOP_CS_15;
	power_rating 15.00;
	powerA_rating 0.0;
	powerB_rating 0.0;
	powerC_rating 15.00;
	install_type POLETOP;
	connect_type SINGLE_PHASE_CENTER_TAPPED;
	primary_voltage 7200.0;
	secondary_voltage 120.0;
	resistance 0.00850;
	resistance1 0.01700;
	resistance2 0.01700;
	reactance 0.01176;
	reactance1 0.00588;
	reactance2 0.00588;
	shunt_resistance 166.67;
	shunt_reactance 39.53;
}

object transformer_configuration {
	name feeder1_XF1_PADMOUNT_CS_10;
	power_rating 10.00;
	powerA_rating 0.0;
	powerB_rating 0.0;
	powerC_rating 10.00;
	install_type PADMOUNT;
	connect_type SINGLE_PHASE_CENTER_TAPPED;
	primary_voltage 7200.0;
	secondary_voltage 120.0;
	resistance 0.00950;
	resistance1 0.01900;
	resistance2 0.01900;
	reactance 0.01040;
	reactance1 0.00520;
	reactance2 0.00520;
	shunt_resistance 147.06;
	shunt_reactance 34.25;
}

object transformer_configuration {
	name feeder1_XF1_POLETOP_AS_15;
	power_rating 15.00;
	powerA_rating 15.00;
	powerB_rating 0.0;
	powerC_rating 0.0;
	install_type POLETOP;
	connect_type SINGLE_PHASE_CENTER_TAPPED;
	primary_voltage 7200.0;
	secondary_voltage 120.0;
	resistance 0.00850;
	resistance1 0.01700;
	resistance2 0.01700;
	reactance 0.01176;
	reactance1 0.00588;
	reactance2 0.00588;
	shunt_resistance 166.67;
	shunt_reactance 39.53;
}

object transformer_configuration {
	name feeder1_XF1_POLETOP_CS_25;
	power_rating 25.00;
	powerA_rating 0.0;
	powerB_rating 0.0;
	powerC_rating 25.00;
	install_type POLETOP;
	connect_type SINGLE_PHASE_CENTER_TAPPED;
	primary_voltage 7200.0;
	secondary_voltage 120.0;
	resistance 0.00800;
	resistance1 0.01600;
	resistance2 0.01600;
	reactance 0.01208;
	reactance1 0.00604;
	reactance2 0.00604;
	shunt_resistance 192.31;
	shunt_reactance 51.81;
}

object transformer_configuration {
	name feeder1_XF1_POLETOP_CS_5;
	power_rating 5.00;
	powerA_rating 0.0;
	powerB_rating 0.0;
	powerC_rating 5.00;
	install_type POLETOP;
	connect_type SINGLE_PHASE_CENTER_TAPPED;
	primary_voltage 7200.0;
	secondary_voltage 120.0;
	resistance 0.01050;
	resistance1 0.02100;
	resistance2 0.02100;
	reactance 0.01224;
	reactance1 0.00612;
	reactance2 0.00612;
	shunt_resistance 111.11;
	shunt_reactance 29.59;
}

object transformer_configuration {
	name feeder1_XF1_POLETOP_AS_25;
	power_rating 25.00;
	powerA_rating 25.00;
	powerB_rating 0.0;
	powerC_rating 0.0;
	install_type POLETOP;
	connect_type SINGLE_PHASE_CENTER_TAPPED;
	primary_voltage 7200.0;
	secondary_voltage 120.0;
	resistance 0.00800;
	resistance1 0.01600;
	resistance2 0.01600;
	reactance 0.01208;
	reactance1 0.00604;
	reactance2 0.00604;
	shunt_resistance 192.31;
	shunt_reactance 51.81;
}

object transformer_configuration {
	name feeder1_XF1_PADMOUNT_BS_10;
	power_rating 10.00;
	powerA_rating 0.0;
	powerB_rating 10.00;
	powerC_rating 0.0;
	install_type PADMOUNT;
	connect_type SINGLE_PHASE_CENTER_TAPPED;
	primary_voltage 7200.0;
	secondary_voltage 120.0;
	resistance 0.00950;
	resistance1 0.01900;
	resistance2 0.01900;
	reactance 0.01040;
	reactance1 0.00520;
	reactance2 0.00520;
	shunt_resistance 147.06;
	shunt_reactance 34.25;
}

object transformer_configuration {
	name feeder1_XF1_POLETOP_CS_37p5;
	power_rating 37.50;
	powerA_rating 0.0;
	powerB_rating 0.0;
	powerC_rating 37.50;
	install_type POLETOP;
	connect_type SINGLE_PHASE_CENTER_TAPPED;
	primary_voltage 7200.0;
	secondary_voltage 120.0;
	resistance 0.00725;
	resistance1 0.01450;
	resistance2 0.01450;
	reactance 0.01320;
	reactance1 0.00660;
	reactance2 0.00660;
	shunt_resistance 212.77;
	shunt_reactance 57.47;
}

object transformer_configuration {
	name feeder1_XF1_POLETOP_AS_37p5;
	power_rating 37.50;
	powerA_rating 37.50;
	powerB_rating 0.0;
	powerC_rating 0.0;
	install_type POLETOP;
	connect_type SINGLE_PHASE_CENTER_TAPPED;
	primary_voltage 7200.0;
	secondary_voltage 120.0;
	resistance 0.00725;
	resistance1 0.01450;
	resistance2 0.01450;
	reactance 0.01320;
	reactance1 0.00660;
	reactance2 0.00660;
	shunt_resistance 212.77;
	shunt_reactance 57.47;
}

object transformer_configuration {
	name feeder1_XF1_POLETOP_BS_50;
	power_rating 50.00;
	powerA_rating 0.0;
	powerB_rating 50.00;
	powerC_rating 0.0;
	install_type POLETOP;
	connect_type SINGLE_PHASE_CENTER_TAPPED;
	primary_voltage 7200.0;
	secondary_voltage 120.0;
	resistance 0.00650;
	resistance1 0.01300;
	resistance2 0.01300;
	reactance 0.01416;
	reactance1 0.00708;
	reactance2 0.00708;
	shunt_resistance 222.22;
	shunt_reactance 64.94;
}

object transformer_configuration {
	name feeder1_XF1_POLETOP_BS_25;
	power_rating 25.00;
	powerA_rating 0.0;
	powerB_rating 25.00;
	powerC_rating 0.0;
	install_type POLETOP;
	connect_type SINGLE_PHASE_CENTER_TAPPED;
	primary_voltage 7200.0;
	secondary_voltage 120.0;
	resistance 0.00800;
	resistance1 0.01600;
	resistance2 0.01600;
	reactance 0.01208;
	reactance1 0.00604;
	reactance2 0.00604;
	shunt_resistance 192.31;
	shunt_reactance 51.81;
}

object transformer_configuration {
	name feeder1_XF1_POLETOP_BS_37p5;
	power_rating 37.50;
	powerA_rating 0.0;
	powerB_rating 37.50;
	powerC_rating 0.0;
	install_type POLETOP;
	connect_type SINGLE_PHASE_CENTER_TAPPED;
	primary_voltage 7200.0;
	secondary_voltage 120.0;
	resistance 0.00725;
	resistance1 0.01450;
	resistance2 0.01450;
	reactance 0.01320;
	reactance1 0.00660;
	reactance2 0.00660;
	shunt_resistance 212.77;
	shunt_reactance 57.47;
}

object transformer_configuration {
	name feeder1_XF1_POLETOP_BS_15;
	power_rating 15.00;
	powerA_rating 0.0;
	powerB_rating 15.00;
	powerC_rating 0.0;
	install_type POLETOP;
	connect_type SINGLE_PHASE_CENTER_TAPPED;
	primary_voltage 7200.0;
	secondary_voltage 120.0;
	resistance 0.00850;
	resistance1 0.01700;
	resistance2 0.01700;
	reactance 0.01176;
	reactance1 0.00588;
	reactance2 0.00588;
	shunt_resistance 166.67;
	shunt_reactance 39.53;
}

object transformer_configuration {
	name feeder1_XF1_PADMOUNT_BS_50;
	power_rating 50.00;
	powerA_rating 0.0;
	powerB_rating 50.00;
	powerC_rating 0.0;
	install_type PADMOUNT;
	connect_type SINGLE_PHASE_CENTER_TAPPED;
	primary_voltage 7200.0;
	secondary_voltage 120.0;
	resistance 0.00650;
	resistance1 0.01300;
	resistance2 0.01300;
	reactance 0.01416;
	reactance1 0.00708;
	reactance2 0.00708;
	shunt_resistance 222.22;
	shunt_reactance 64.94;
}

object transformer_configuration {
	name feeder1_XF1_PADMOUNT_AS_100;
	power_rating 100.00;
	powerA_rating 100.00;
	powerB_rating 0.0;
	powerC_rating 0.0;
	install_type PADMOUNT;
	connect_type SINGLE_PHASE_CENTER_TAPPED;
	primary_voltage 7200.0;
	secondary_voltage 120.0;
	resistance 0.00600;
	resistance1 0.01200;
	resistance2 0.01200;
	reactance 0.01752;
	reactance1 0.00876;
	reactance2 0.00876;
	shunt_resistance 250.00;
	shunt_reactance 68.97;
}

object transformer_configuration {
	name feeder1_XF1_PADMOUNT_BS_100;
	power_rating 100.00;
	powerA_rating 0.0;
	powerB_rating 100.00;
	powerC_rating 0.0;
	install_type PADMOUNT;
	connect_type SINGLE_PHASE_CENTER_TAPPED;
	primary_voltage 7200.0;
	secondary_voltage 120.0;
	resistance 0.00600;
	resistance1 0.01200;
	resistance2 0.01200;
	reactance 0.01752;
	reactance1 0.00876;
	reactance2 0.00876;
	shunt_resistance 250.00;
	shunt_reactance 68.97;
}

object transformer_configuration {
	name feeder1_XF3_PADMOUNT_ABCN_300;
	power_rating 300.00;
	powerA_rating 100.00;
	powerB_rating 100.00;
	powerC_rating 100.00;
	install_type PADMOUNT;
	connect_type WYE_WYE;
	primary_voltage 12470.0;
	secondary_voltage 480.0;
	resistance 0.01300;
	reactance 0.04830;
	shunt_resistance 217.39;
	shunt_reactance 44.44;
}

object transformer_configuration {
	name feeder1_XF3_PADMOUNT_ABCN_30;
	power_rating 30.00;
	powerA_rating 10.00;
	powerB_rating 10.00;
	powerC_rating 10.00;
	install_type PADMOUNT;
	connect_type WYE_WYE;
	primary_voltage 12470.0;
	secondary_voltage 208.0;
	resistance 0.01900;
	reactance 0.01770;
	shunt_resistance 126.58;
	shunt_reactance 22.57;
}

object transformer_configuration {
	name feeder1_XF3_POLETOP_ABCN_112p5;
	power_rating 112.50;
	powerA_rating 37.50;
	powerB_rating 37.50;
	powerC_rating 37.50;
	install_type POLETOP;
	connect_type WYE_WYE;
	primary_voltage 12470.0;
	secondary_voltage 480.0;
	resistance 0.01450;
	reactance 0.02850;
	shunt_resistance 169.49;
	shunt_reactance 33.44;
}

object transformer_configuration {
	name feeder1_XF3_POLETOP_ABCN_30;
	power_rating 30.00;
	powerA_rating 10.00;
	powerB_rating 10.00;
	powerC_rating 10.00;
	install_type POLETOP;
	connect_type WYE_WYE;
	primary_voltage 12470.0;
	secondary_voltage 208.0;
	resistance 0.01900;
	reactance 0.01770;
	shunt_resistance 126.58;
	shunt_reactance 22.57;
}

object transformer_configuration {
	name feeder1_XF3_PADMOUNT_ABCN_150;
	power_rating 150.00;
	powerA_rating 50.00;
	powerB_rating 50.00;
	powerC_rating 50.00;
	install_type PADMOUNT;
	connect_type WYE_WYE;
	primary_voltage 12470.0;
	secondary_voltage 480.0;
	resistance 0.01300;
	reactance 0.03250;
	shunt_resistance 185.19;
	shunt_reactance 36.36;
}

object transformer_configuration {
	name feeder1_XF1_PADMOUNT_AN_15;
	power_rating 15.00;
	powerA_rating 15.00;
	powerB_rating 0.0;
	powerC_rating 0.0;
	install_type PADMOUNT;
	connect_type WYE_WYE;
	primary_voltage 12470.0;
	secondary_voltage 208.0;
	resistance 0.01900;
	reactance 0.01770;
	shunt_resistance 126.58;
	shunt_reactance 22.57;
}

object transformer_configuration {
	name feeder1_XF1_PADMOUNT_AN_5;
	power_rating 5.00;
	powerA_rating 5.00;
	powerB_rating 0.0;
	powerC_rating 0.0;
	install_type PADMOUNT;
	connect_type WYE_WYE;
	primary_voltage 12470.0;
	secondary_voltage 208.0;
	resistance 0.01900;
	reactance 0.01770;
	shunt_resistance 126.58;
	shunt_reactance 22.57;
}

object transformer_configuration {
	name substation_xfmr_config;
	connect_type WYE_WYE;
	install_type PADMOUNT;
	primary_voltage 345000.00;
	secondary_voltage 12470.00;
	power_rating 20000.00;
	resistance 0.01;
	reactance 0.08;
	shunt_resistance 250.00;
	shunt_reactance 100.00;
}

object transformer_configuration {
	name copperplate_feeder_transf_conf_bldg_1;
	power_rating 120.00;
	powerA_rating 40.00;
	powerB_rating 40.00;
	powerC_rating 40.00;
	install_type POLETOP;
	connect_type WYE_WYE;
	primary_voltage 7200.0;
	secondary_voltage 120.0;
	resistance 0.01900;
	reactance 0.01770;
	shunt_resistance 126.58;
	shunt_reactance 22.57;
}

object transformer_configuration {
	name copperplate_feeder_transf_conf_bldg_2;
	power_rating 120.00;
	powerA_rating 40.00;
	powerB_rating 40.00;
	powerC_rating 40.00;
	install_type POLETOP;
	connect_type WYE_WYE;
	primary_voltage 7200.0;
	secondary_voltage 120.0;
	resistance 0.01900;
	reactance 0.01770;
	shunt_resistance 126.58;
	shunt_reactance 22.57;
}

object transformer_configuration {
	name copperplate_feeder_transf_conf_bldg_3;
	power_rating 120.00;
	powerA_rating 40.00;
	powerB_rating 40.00;
	powerC_rating 40.00;
	install_type POLETOP;
	connect_type WYE_WYE;
	primary_voltage 7200.0;
	secondary_voltage 120.0;
	resistance 0.01900;
	reactance 0.01770;
	shunt_resistance 126.58;
	shunt_reactance 22.57;
}

object transformer_configuration {
	name copperplate_feeder_transf_conf_bldg_4;
	power_rating 120.00;
	powerA_rating 40.00;
	powerB_rating 40.00;
	powerC_rating 40.00;
	install_type POLETOP;
	connect_type WYE_WYE;
	primary_voltage 7200.0;
	secondary_voltage 120.0;
	resistance 0.01900;
	reactance 0.01770;
	shunt_resistance 126.58;
	shunt_reactance 22.57;
}

object transformer_configuration {
	name copperplate_feeder_transf_conf_bldg_5;
	power_rating 120.00;
	powerA_rating 40.00;
	powerB_rating 40.00;
	powerC_rating 40.00;
	install_type POLETOP;
	connect_type WYE_WYE;
	primary_voltage 7200.0;
	secondary_voltage 120.0;
	resistance 0.01900;
	reactance 0.01770;
	shunt_resistance 126.58;
	shunt_reactance 22.57;
}

object transformer_configuration {
	name copperplate_feeder_transf_conf_bldg_6;
	power_rating 120.00;
	powerA_rating 40.00;
	powerB_rating 40.00;
	powerC_rating 40.00;
	install_type POLETOP;
	connect_type WYE_WYE;
	primary_voltage 7200.0;
	secondary_voltage 120.0;
	resistance 0.01900;
	reactance 0.01770;
	shunt_resistance 126.58;
	shunt_reactance 22.57;
}

object transformer_configuration {
	name copperplate_feeder_transf_conf_bldg_7;
	power_rating 120.00;
	powerA_rating 40.00;
	powerB_rating 40.00;
	powerC_rating 40.00;
	install_type POLETOP;
	connect_type WYE_WYE;
	primary_voltage 7200.0;
	secondary_voltage 120.0;
	resistance 0.01900;
	reactance 0.01770;
	shunt_resistance 126.58;
	shunt_reactance 22.57;
}

object transformer_configuration {
	name copperplate_feeder_transf_conf_bldg_8;
	power_rating 120.00;
	powerA_rating 40.00;
	powerB_rating 40.00;
	powerC_rating 40.00;
	install_type POLETOP;
	connect_type WYE_WYE;
	primary_voltage 7200.0;
	secondary_voltage 120.0;
	resistance 0.01900;
	reactance 0.01770;
	shunt_resistance 126.58;
	shunt_reactance 22.57;
}

object transformer_configuration {
	name copperplate_feeder_transf_conf_bldg_9;
	power_rating 120.00;
	powerA_rating 40.00;
	powerB_rating 40.00;
	powerC_rating 40.00;
	install_type POLETOP;
	connect_type WYE_WYE;
	primary_voltage 7200.0;
	secondary_voltage 120.0;
	resistance 0.01900;
	reactance 0.01770;
	shunt_resistance 126.58;
	shunt_reactance 22.57;
}

object transformer_configuration {
	name copperplate_feeder_transf_conf_bldg_10;
	power_rating 120.00;
	powerA_rating 40.00;
	powerB_rating 40.00;
	powerC_rating 40.00;
	install_type POLETOP;
	connect_type WYE_WYE;
	primary_voltage 7200.0;
	secondary_voltage 120.0;
	resistance 0.01900;
	reactance 0.01770;
	shunt_resistance 126.58;
	shunt_reactance 22.57;
}

object transformer_configuration {
	name copperplate_feeder_transf_conf_bldg_11;
	power_rating 120.00;
	powerA_rating 40.00;
	powerB_rating 40.00;
	powerC_rating 40.00;
	install_type POLETOP;
	connect_type WYE_WYE;
	primary_voltage 7200.0;
	secondary_voltage 120.0;
	resistance 0.01900;
	reactance 0.01770;
	shunt_resistance 126.58;
	shunt_reactance 22.57;
}

object transformer_configuration {
	name copperplate_feeder_transf_conf_bldg_12;
	power_rating 120.00;
	powerA_rating 40.00;
	powerB_rating 40.00;
	powerC_rating 40.00;
	install_type POLETOP;
	connect_type WYE_WYE;
	primary_voltage 7200.0;
	secondary_voltage 120.0;
	resistance 0.01900;
	reactance 0.01770;
	shunt_resistance 126.58;
	shunt_reactance 22.57;
}

object transformer_configuration {
	name copperplate_feeder_transf_conf_bldg_13;
	power_rating 120.00;
	powerA_rating 40.00;
	powerB_rating 40.00;
	powerC_rating 40.00;
	install_type POLETOP;
	connect_type WYE_WYE;
	primary_voltage 7200.0;
	secondary_voltage 120.0;
	resistance 0.01900;
	reactance 0.01770;
	shunt_resistance 126.58;
	shunt_reactance 22.57;
}

object transformer_configuration {
	name copperplate_feeder_transf_conf_bldg_14;
	power_rating 120.00;
	powerA_rating 40.00;
	powerB_rating 40.00;
	powerC_rating 40.00;
	install_type POLETOP;
	connect_type WYE_WYE;
	primary_voltage 7200.0;
	secondary_voltage 120.0;
	resistance 0.01900;
	reactance 0.01770;
	shunt_resistance 126.58;
	shunt_reactance 22.57;
}

object transformer_configuration {
	name copperplate_feeder_transf_conf_bldg_16;
	power_rating 120.00;
	powerA_rating 40.00;
	powerB_rating 40.00;
	powerC_rating 40.00;
	install_type POLETOP;
	connect_type WYE_WYE;
	primary_voltage 7200.0;
	secondary_voltage 120.0;
	resistance 0.01900;
	reactance 0.01770;
	shunt_resistance 126.58;
	shunt_reactance 22.57;
}

object transformer_configuration {
	name copperplate_feeder_transf_conf_bldg_17;
	power_rating 120.00;
	powerA_rating 40.00;
	powerB_rating 40.00;
	powerC_rating 40.00;
	install_type POLETOP;
	connect_type WYE_WYE;
	primary_voltage 7200.0;
	secondary_voltage 120.0;
	resistance 0.01900;
	reactance 0.01770;
	shunt_resistance 126.58;
	shunt_reactance 22.57;
}

object transformer_configuration {
	name copperplate_feeder_transf_conf_bldg_18;
	power_rating 120.00;
	powerA_rating 40.00;
	powerB_rating 40.00;
	powerC_rating 40.00;
	install_type POLETOP;
	connect_type WYE_WYE;
	primary_voltage 7200.0;
	secondary_voltage 120.0;
	resistance 0.01900;
	reactance 0.01770;
	shunt_resistance 126.58;
	shunt_reactance 22.57;
}

object transformer_configuration {
	name copperplate_feeder_transf_conf_bldg_19;
	power_rating 120.00;
	powerA_rating 40.00;
	powerB_rating 40.00;
	powerC_rating 40.00;
	install_type POLETOP;
	connect_type WYE_WYE;
	primary_voltage 7200.0;
	secondary_voltage 120.0;
	resistance 0.01900;
	reactance 0.01770;
	shunt_resistance 126.58;
	shunt_reactance 22.57;
}

object transformer_configuration {
	name copperplate_feeder_transf_conf_bldg_20;
	power_rating 120.00;
	powerA_rating 40.00;
	powerB_rating 40.00;
	powerC_rating 40.00;
	install_type POLETOP;
	connect_type WYE_WYE;
	primary_voltage 7200.0;
	secondary_voltage 120.0;
	resistance 0.01900;
	reactance 0.01770;
	shunt_resistance 126.58;
	shunt_reactance 22.57;
}

object transformer_configuration {
	name copperplate_feeder_transf_conf_bldg_21;
	power_rating 120.00;
	powerA_rating 40.00;
	powerB_rating 40.00;
	powerC_rating 40.00;
	install_type POLETOP;
	connect_type WYE_WYE;
	primary_voltage 7200.0;
	secondary_voltage 120.0;
	resistance 0.01900;
	reactance 0.01770;
	shunt_resistance 126.58;
	shunt_reactance 22.57;
}

object transformer_configuration {
	name copperplate_feeder_transf_conf_bldg_23;
	power_rating 120.00;
	powerA_rating 40.00;
	powerB_rating 40.00;
	powerC_rating 40.00;
	install_type POLETOP;
	connect_type WYE_WYE;
	primary_voltage 7200.0;
	secondary_voltage 120.0;
	resistance 0.01900;
	reactance 0.01770;
	shunt_resistance 126.58;
	shunt_reactance 22.57;
}

object transformer_configuration {
	name copperplate_feeder_transf_conf_bldg_24;
	power_rating 120.00;
	powerA_rating 40.00;
	powerB_rating 40.00;
	powerC_rating 40.00;
	install_type POLETOP;
	connect_type WYE_WYE;
	primary_voltage 7200.0;
	secondary_voltage 120.0;
	resistance 0.01900;
	reactance 0.01770;
	shunt_resistance 126.58;
	shunt_reactance 22.57;
}

object transformer_configuration {
	name copperplate_feeder_transf_conf_bldg_25;
	power_rating 120.00;
	powerA_rating 40.00;
	powerB_rating 40.00;
	powerC_rating 40.00;
	install_type POLETOP;
	connect_type WYE_WYE;
	primary_voltage 7200.0;
	secondary_voltage 120.0;
	resistance 0.01900;
	reactance 0.01770;
	shunt_resistance 126.58;
	shunt_reactance 22.57;
}

object transformer_configuration {
	name copperplate_feeder_transf_conf_bldg_26;
	power_rating 120.00;
	powerA_rating 40.00;
	powerB_rating 40.00;
	powerC_rating 40.00;
	install_type POLETOP;
	connect_type WYE_WYE;
	primary_voltage 7200.0;
	secondary_voltage 120.0;
	resistance 0.01900;
	reactance 0.01770;
	shunt_resistance 126.58;
	shunt_reactance 22.57;
}

object transformer_configuration {
	name copperplate_feeder_transf_conf_bldg_27;
	power_rating 120.00;
	powerA_rating 40.00;
	powerB_rating 40.00;
	powerC_rating 40.00;
	install_type POLETOP;
	connect_type WYE_WYE;
	primary_voltage 7200.0;
	secondary_voltage 120.0;
	resistance 0.01900;
	reactance 0.01770;
	shunt_resistance 126.58;
	shunt_reactance 22.57;
}

object transformer_configuration {
	name copperplate_feeder_transf_conf_bldg_28;
	power_rating 120.00;
	powerA_rating 40.00;
	powerB_rating 40.00;
	powerC_rating 40.00;
	install_type POLETOP;
	connect_type WYE_WYE;
	primary_voltage 7200.0;
	secondary_voltage 120.0;
	resistance 0.01900;
	reactance 0.01770;
	shunt_resistance 126.58;
	shunt_reactance 22.57;
}

object transformer_configuration {
	name copperplate_feeder_transf_conf_bldg_29;
	power_rating 120.00;
	powerA_rating 40.00;
	powerB_rating 40.00;
	powerC_rating 40.00;
	install_type POLETOP;
	connect_type WYE_WYE;
	primary_voltage 7200.0;
	secondary_voltage 120.0;
	resistance 0.01900;
	reactance 0.01770;
	shunt_resistance 126.58;
	shunt_reactance 22.57;
}

object transformer_configuration {
	name copperplate_feeder_transf_conf_bldg_30;
	power_rating 120.00;
	powerA_rating 40.00;
	powerB_rating 40.00;
	powerC_rating 40.00;
	install_type POLETOP;
	connect_type WYE_WYE;
	primary_voltage 7200.0;
	secondary_voltage 120.0;
	resistance 0.01900;
	reactance 0.01770;
	shunt_resistance 126.58;
	shunt_reactance 22.57;
}

object transformer_configuration {
	name copperplate_feeder_transf_conf_bldg_31;
	power_rating 120.00;
	powerA_rating 40.00;
	powerB_rating 40.00;
	powerC_rating 40.00;
	install_type POLETOP;
	connect_type WYE_WYE;
	primary_voltage 7200.0;
	secondary_voltage 120.0;
	resistance 0.01900;
	reactance 0.01770;
	shunt_resistance 126.58;
	shunt_reactance 22.57;
}

object transformer_configuration {
	name copperplate_feeder_transf_conf_bldg_32;
	power_rating 120.00;
	powerA_rating 40.00;
	powerB_rating 40.00;
	powerC_rating 40.00;
	install_type POLETOP;
	connect_type WYE_WYE;
	primary_voltage 7200.0;
	secondary_voltage 120.0;
	resistance 0.01900;
	reactance 0.01770;
	shunt_resistance 126.58;
	shunt_reactance 22.57;
}

object transformer_configuration {
	name copperplate_feeder_transf_conf_bldg_33;
	power_rating 120.00;
	powerA_rating 40.00;
	powerB_rating 40.00;
	powerC_rating 40.00;
	install_type POLETOP;
	connect_type WYE_WYE;
	primary_voltage 7200.0;
	secondary_voltage 120.0;
	resistance 0.01900;
	reactance 0.01770;
	shunt_resistance 126.58;
	shunt_reactance 22.57;
}

object transformer_configuration {
	name copperplate_feeder_transf_conf_bldg_34;
	power_rating 120.00;
	powerA_rating 40.00;
	powerB_rating 40.00;
	powerC_rating 40.00;
	install_type POLETOP;
	connect_type WYE_WYE;
	primary_voltage 7200.0;
	secondary_voltage 120.0;
	resistance 0.01900;
	reactance 0.01770;
	shunt_resistance 126.58;
	shunt_reactance 22.57;
}

object transformer_configuration {
	name copperplate_feeder_transf_conf_bldg_35;
	power_rating 120.00;
	powerA_rating 40.00;
	powerB_rating 40.00;
	powerC_rating 40.00;
	install_type POLETOP;
	connect_type WYE_WYE;
	primary_voltage 7200.0;
	secondary_voltage 120.0;
	resistance 0.01900;
	reactance 0.01770;
	shunt_resistance 126.58;
	shunt_reactance 22.57;
}

object transformer_configuration {
	name copperplate_feeder_transf_conf_bldg_36;
	power_rating 120.00;
	powerA_rating 40.00;
	powerB_rating 40.00;
	powerC_rating 40.00;
	install_type POLETOP;
	connect_type WYE_WYE;
	primary_voltage 7200.0;
	secondary_voltage 120.0;
	resistance 0.01900;
	reactance 0.01770;
	shunt_resistance 126.58;
	shunt_reactance 22.57;
}

object transformer_configuration {
	name copperplate_feeder_transf_conf_bldg_37;
	power_rating 120.00;
	powerA_rating 40.00;
	powerB_rating 40.00;
	powerC_rating 40.00;
	install_type POLETOP;
	connect_type WYE_WYE;
	primary_voltage 7200.0;
	secondary_voltage 120.0;
	resistance 0.01900;
	reactance 0.01770;
	shunt_resistance 126.58;
	shunt_reactance 22.57;
}

object transformer_configuration {
	name copperplate_feeder_transf_conf_bldg_39;
	power_rating 120.00;
	powerA_rating 40.00;
	powerB_rating 40.00;
	powerC_rating 40.00;
	install_type POLETOP;
	connect_type WYE_WYE;
	primary_voltage 7200.0;
	secondary_voltage 120.0;
	resistance 0.01900;
	reactance 0.01770;
	shunt_resistance 126.58;
	shunt_reactance 22.57;
}

object triplex_line_conductor {
	name feeder1_triplex_4/0_aa;
	resistance 0.48;
	geometric_mean_radius 0.0158;
	rating.summer.continuous 1000.0;
	rating.summer.emergency 1000.0;
	rating.winter.continuous 1000.0;
	rating.winter.emergency 1000.0;
}

object triplex_line_conductor {
	name feeder1_triplex_4/;
	resistance 0.48;
	geometric_mean_radius 0.0158;
	rating.summer.continuous 1000.0;
	rating.summer.emergency 1000.0;
	rating.winter.continuous 1000.0;
	rating.winter.emergency 1000.0;
}

object triplex_line_configuration {
	name feeder1_tpx_config;
	conductor_1 feeder1_triplex_4/0_aa;
	conductor_2 feeder1_triplex_4/0_aa;
	conductor_N feeder1_triplex_4/0_aa;
	insulation_thickness 0.08;
	diameter 0.522;
}

object triplex_line_configuration {
	name feeder1_ID_1710;
	conductor_1 feeder1_triplex_4/;
	conductor_2 feeder1_triplex_4/;
	conductor_N feeder1_triplex_4/;
	insulation_thickness 0.08;
	diameter 0.522;
}

object regulator_configuration {
	name feeder1_feeder_reg_cfg;
	Control MANUAL;
	band_center 7500.0;
	band_width 120;
	connect_type WYE_WYE;
	time_delay 30;
	raise_taps 16;
	lower_taps 16;
	regulation 0.10;
	tap_pos_A 0;
	tap_pos_B 0;
	tap_pos_C 0;
}

object regulator_configuration {
	name copperplate_feeder_feeder_reg_cfg;
	Control OUTPUT_VOLTAGE;
	band_center 7500.0;
	band_width 120;
	connect_type WYE_WYE;
	time_delay 30;
	raise_taps 16;
	lower_taps 16;
	regulation 0.10;
	tap_pos_A 0;
	tap_pos_B 0;
	tap_pos_C 0;
}

object overhead_line_conductor {
	name feeder1_ID_1059;
	rating.summer.continuous 149.0;
	geometric_mean_radius 0.00663 ft;
	resistance 1.50000;
}

object overhead_line_conductor {
	name feeder1_ID_1060;
	rating.summer.continuous 120.0;
	geometric_mean_radius 0.00700 ft;
	resistance 2.40970;
}

object overhead_line_conductor {
	name feeder1_ID_1061;
	rating.summer.continuous 533.0;
	geometric_mean_radius 0.02280 ft;
	resistance 0.25800;
}

object overhead_line_conductor {
	name feeder1_ID_1062;
	rating.summer.continuous 112.0;
	geometric_mean_radius 0.00526 ft;
	resistance 2.39000;
}

object overhead_line_conductor {
	name feeder1_ID_1063;
	rating.summer.continuous 443.0;
	geometric_mean_radius 0.02270 ft;
	resistance 0.05230;
}

object overhead_line_conductor {
	name feeder1_ID_1064;
	rating.summer.continuous 605.0;
	geometric_mean_radius 0.02920 ft;
	resistance 0.03180;
}

object overhead_line_conductor {
	name feeder1_ID_1065;
	rating.summer.continuous 256.0;
	geometric_mean_radius 0.01200 ft;
	resistance 0.16600;
}

object overhead_line_conductor {
	name feeder1_ID_1066;
	rating.summer.continuous 334.0;
	geometric_mean_radius 0.00814 ft;
	resistance 0.56300;
}

object line_spacing {
	name feeder1_ID_82;
	distance_AB 3.0 in;
	distance_BC 3.0 in;
	distance_AC 3.0 in;
	distance_AN 2.0 in;
	distance_BN 2.0 in;
	distance_CN 2.0 in;
}

object line_spacing {
	name feeder1_ID_83;
	distance_BN 2.0 in;
}

object line_spacing {
	name feeder1_ID_84;
	distance_AN 2.0 in;
}

object line_spacing {
	name feeder1_ID_85;
	distance_CN 2.0 in;
}

object line_spacing {
	name feeder1_ID_86;
	distance_CN 2.0 in;
}

object line_spacing {
	name feeder1_ID_87;
	distance_AB 48.0 in;
	distance_BC 48.0 in;
	distance_AC 48.0 in;
	distance_AN 36.0 in;
	distance_BN 36.0 in;
	distance_CN 36.0 in;
}

object line_spacing {
	name feeder1_ID_88;
	distance_AC 48.0 in;
	distance_AN 36.0 in;
	distance_CN 36.0 in;
}

object line_spacing {
	name feeder1_ID_89;
	distance_CN 36.0 in;
}

object line_spacing {
	name feeder1_ID_90;
	distance_AC 3.0 in;
	distance_AN 2.0 in;
	distance_CN 2.0 in;
}

object line_spacing {
	name feeder1_ID_91;
	distance_BC 48.0 in;
	distance_BN 36.0 in;
	distance_CN 36.0 in;
}

object line_spacing {
	name feeder1_ID_92;
	distance_AN 36.0 in;
}

object line_spacing {
	name feeder1_ID_93;
	distance_BN 36.0 in;
}

object line_spacing {
	name feeder1_ID_94;
	distance_BC 3.0 in;
	distance_BN 2.0 in;
	distance_CN 2.0 in;
}

object line_spacing {
	name feeder1_ID_95;
	distance_AB 3.0 in;
	distance_AN 2.0 in;
	distance_BN 2.0 in;
}

object line_spacing {
	name feeder1_ID_96;
	distance_AN 48.0 in;
}

object line_configuration {
	name feeder1_ID_45;
	conductor_A feeder1_ID_4240;
	conductor_B feeder1_ID_4240;
	conductor_C feeder1_ID_4240;
	conductor_N feeder1_ID_4240;
	spacing feeder1_ID_82;
}

object line_configuration {
	name feeder1_ID_46;
	conductor_B feeder1_ID_4240;
	conductor_N feeder1_ID_4240;
	spacing feeder1_ID_83;
}

object line_configuration {
	name feeder1_ID_47;
	conductor_A feeder1_ID_4240;
	conductor_N feeder1_ID_4240;
	spacing feeder1_ID_84;
}

object line_configuration {
	name feeder1_ID_48;
	conductor_C feeder1_ID_4240;
	conductor_N feeder1_ID_4240;
	spacing feeder1_ID_85;
}

object line_configuration {
	name feeder1_ID_49;
	conductor_C feeder1_ID_4240;
	conductor_N feeder1_ID_4240;
	spacing feeder1_ID_86;
}

object line_configuration {
	name feeder1_ID_50;
	conductor_C feeder1_ID_4241;
	conductor_N feeder1_ID_4241;
	spacing feeder1_ID_85;
}

object line_configuration {
	name feeder1_ID_51;
	conductor_A feeder1_ID_1059;
	conductor_B feeder1_ID_1059;
	conductor_C feeder1_ID_1059;
	conductor_N feeder1_ID_1059;
	spacing feeder1_ID_87;
}

object line_configuration {
	name feeder1_ID_52;
	conductor_A feeder1_ID_1059;
	conductor_C feeder1_ID_1059;
	conductor_N feeder1_ID_1059;
	spacing feeder1_ID_88;
}

object line_configuration {
	name feeder1_ID_53;
	conductor_A feeder1_ID_1060;
	conductor_C feeder1_ID_1060;
	conductor_N feeder1_ID_1060;
	spacing feeder1_ID_88;
}

object line_configuration {
	name feeder1_ID_54;
	conductor_C feeder1_ID_4242;
	conductor_N feeder1_ID_4242;
	spacing feeder1_ID_85;
}

object line_configuration {
	name feeder1_ID_55;
	conductor_A feeder1_ID_1060;
	conductor_B feeder1_ID_1060;
	conductor_C feeder1_ID_1060;
	conductor_N feeder1_ID_1060;
	spacing feeder1_ID_87;
}

object line_configuration {
	name feeder1_ID_56;
	conductor_A feeder1_ID_1061;
	conductor_B feeder1_ID_1061;
	conductor_C feeder1_ID_1061;
	conductor_N feeder1_ID_1061;
	spacing feeder1_ID_87;
}

object line_configuration {
	name feeder1_ID_57;
	conductor_C feeder1_ID_1059;
	conductor_N feeder1_ID_1059;
	spacing feeder1_ID_89;
}

object line_configuration {
	name feeder1_ID_58;
	conductor_A feeder1_ID_4243;
	conductor_B feeder1_ID_4243;
	conductor_C feeder1_ID_4243;
	conductor_N feeder1_ID_4243;
	spacing feeder1_ID_82;
}

object line_configuration {
	name feeder1_ID_59;
	conductor_C feeder1_ID_4243;
	conductor_N feeder1_ID_4243;
	spacing feeder1_ID_85;
}

object line_configuration {
	name feeder1_ID_60;
	conductor_A feeder1_ID_4242;
	conductor_C feeder1_ID_4242;
	conductor_N feeder1_ID_4242;
	spacing feeder1_ID_90;
}

object line_configuration {
	name feeder1_ID_61;
	conductor_A feeder1_ID_1062;
	conductor_C feeder1_ID_1062;
	conductor_N feeder1_ID_1062;
	spacing feeder1_ID_88;
}

object line_configuration {
	name feeder1_ID_62;
	conductor_A feeder1_ID_4242;
	conductor_N feeder1_ID_4242;
	spacing feeder1_ID_84;
}

object line_configuration {
	name feeder1_ID_63;
	conductor_A feeder1_ID_4244;
	conductor_B feeder1_ID_4244;
	conductor_C feeder1_ID_4244;
	conductor_N feeder1_ID_4244;
	spacing feeder1_ID_82;
}

object line_configuration {
	name feeder1_ID_64;
	conductor_A feeder1_ID_4241;
	conductor_B feeder1_ID_4241;
	conductor_C feeder1_ID_4241;
	conductor_N feeder1_ID_4241;
	spacing feeder1_ID_87;
}

object line_configuration {
	name feeder1_ID_65;
	conductor_A feeder1_ID_1062;
	conductor_B feeder1_ID_1062;
	conductor_C feeder1_ID_1062;
	conductor_N feeder1_ID_1062;
	spacing feeder1_ID_87;
}

object line_configuration {
	name feeder1_ID_66;
	conductor_A feeder1_ID_1060;
	conductor_B feeder1_ID_1060;
	conductor_C feeder1_ID_1060;
	conductor_N feeder1_ID_1060;
	spacing feeder1_ID_87;
}

object line_configuration {
	name feeder1_ID_67;
	conductor_B feeder1_ID_1062;
	conductor_C feeder1_ID_1062;
	conductor_N feeder1_ID_1062;
	spacing feeder1_ID_91;
}

object line_configuration {
	name feeder1_ID_68;
	conductor_A feeder1_ID_1060;
	conductor_N feeder1_ID_1060;
	spacing feeder1_ID_92;
}

object line_configuration {
	name feeder1_ID_69;
	conductor_A feeder1_ID_1059;
	conductor_N feeder1_ID_1059;
	spacing feeder1_ID_92;
}

object line_configuration {
	name feeder1_ID_70;
	conductor_A feeder1_ID_4241;
	conductor_B feeder1_ID_4241;
	conductor_C feeder1_ID_4241;
	conductor_N feeder1_ID_4241;
	spacing feeder1_ID_82;
}

object line_configuration {
	name feeder1_ID_71;
	conductor_A feeder1_ID_4241;
	conductor_N feeder1_ID_4241;
	spacing feeder1_ID_84;
}

object line_configuration {
	name feeder1_ID_72;
	conductor_B feeder1_ID_1060;
	conductor_N feeder1_ID_1060;
	spacing feeder1_ID_93;
}

object line_configuration {
	name feeder1_ID_73;
	conductor_A feeder1_ID_1063;
	conductor_B feeder1_ID_1063;
	conductor_C feeder1_ID_1063;
	conductor_N feeder1_ID_1063;
	spacing feeder1_ID_87;
}

object line_configuration {
	name feeder1_ID_74;
	conductor_A feeder1_ID_1064;
	conductor_B feeder1_ID_1064;
	conductor_C feeder1_ID_1064;
	conductor_N feeder1_ID_1064;
	spacing feeder1_ID_87;
}

object line_configuration {
	name feeder1_ID_75;
	conductor_A feeder1_ID_1065;
	conductor_B feeder1_ID_1065;
	conductor_C feeder1_ID_1065;
	conductor_N feeder1_ID_1065;
	spacing feeder1_ID_87;
}

object line_configuration {
	name feeder1_ID_76;
	conductor_A feeder1_ID_4240;
	conductor_C feeder1_ID_4240;
	conductor_N feeder1_ID_4240;
	spacing feeder1_ID_90;
}

object line_configuration {
	name feeder1_ID_77;
	conductor_C feeder1_ID_1063;
	conductor_N feeder1_ID_1063;
	spacing feeder1_ID_89;
}

object line_configuration {
	name feeder1_ID_78;
	conductor_B feeder1_ID_4240;
	conductor_C feeder1_ID_4240;
	conductor_N feeder1_ID_4240;
	spacing feeder1_ID_94;
}

object line_configuration {
	name feeder1_ID_79;
	conductor_A feeder1_ID_4240;
	conductor_B feeder1_ID_4240;
	conductor_N feeder1_ID_4240;
	spacing feeder1_ID_95;
}

object line_configuration {
	name feeder1_ID_80;
	conductor_A feeder1_ID_1059;
	conductor_N feeder1_ID_1059;
	spacing feeder1_ID_96;
}

object line_configuration {
	name feeder1_ID_81;
	conductor_C feeder1_ID_4244;
	conductor_N feeder1_ID_4244;
	spacing feeder1_ID_85;
}

object underground_line_conductor {
	name feeder1_ID_4240;
	rating.summer.continuous 112.0;
	outer_diameter 1.09;
	conductor_gmr 0.0088 ft;
	conductor_diameter 0.292;
	conductor_resistance 1.38336;
	neutral_gmr 0.00208 ft;
	neutral_resistance 14.87;
	neutral_diameter 0.0641;
	neutral_strands 6.0;
	insulation_relative_permitivitty 2.3;
}

object underground_line_conductor {
	name feeder1_ID_4241;
	rating.summer.continuous 214.0;
	outer_diameter 1.32;
	conductor_gmr 0.0177 ft;
	conductor_diameter 0.528;
	conductor_resistance 0.433488;
	neutral_gmr 0.00208 ft;
	neutral_resistance 14.87;
	neutral_diameter 0.0641;
	neutral_strands 11.0;
	insulation_relative_permitivitty 2.3;
}

object underground_line_conductor {
	name feeder1_ID_4242;
	rating.summer.continuous 142.0;
	outer_diameter 1.27;
	conductor_gmr 0.01142 ft;
	conductor_diameter 0.362;
	conductor_resistance 0.88704;
	neutral_gmr 0.00208 ft;
	neutral_resistance 14.87;
	neutral_diameter 0.0641;
	neutral_strands 16.0;
	insulation_relative_permitivitty 2.3;
}

object underground_line_conductor {
	name feeder1_ID_4243;
	rating.summer.continuous 425.0;
	outer_diameter 1.96;
	conductor_gmr 0.0321 ft;
	conductor_diameter 0.998;
	conductor_resistance 0.122496;
	neutral_gmr 0.00330 ft;
	neutral_resistance 5.9026;
	neutral_diameter 0.1019;
	neutral_strands 15.0;
	insulation_relative_permitivitty 2.3;
}

object underground_line_conductor {
	name feeder1_ID_4244;
	rating.summer.continuous 488.0;
	outer_diameter 2.15;
	conductor_gmr 0.0371 ft;
	conductor_diameter 1.152;
	conductor_resistance 0.091872;
	neutral_gmr 0.00330 ft;
	neutral_resistance 5.9026;
	neutral_diameter 0.1019;
	neutral_strands 20.0;
	insulation_relative_permitivitty 2.3;
}

object fuse {
	name R2_12_47_3_fuse_1;
	phases ABCN;
	from R2_12_47_3_node_228;
	to R2_12_47_3_node_265;
	current_limit 2000;
	status CLOSED;
	mean_replacement_time 3600;
}

object fuse {
	name R2_12_47_3_fuse_2;
	phases ABCN;
	from R2_12_47_3_node_232;
	to R2_12_47_3_node_272;
	current_limit 800;
	status CLOSED;
	mean_replacement_time 3600;
}

object fuse {
	name R2_12_47_3_fuse_3;
	phases ABCN;
	from R2_12_47_3_node_65;
	to R2_12_47_3_node_628;
	current_limit 100;
	status CLOSED;
	mean_replacement_time 3600;
}

object fuse {
	name R2_12_47_3_fuse_4;
	phases ACN;
	from R2_12_47_3_node_39;
	to R2_12_47_3_node_40;
	current_limit 2000;
	status CLOSED;
	mean_replacement_time 3600;
}

object fuse {
	name R2_12_47_3_fuse_5;
	phases ABCN;
	from R2_12_47_3_node_66;
	to R2_12_47_3_node_535;
	current_limit 999999;
	status CLOSED;
	mean_replacement_time 3600;
}

object fuse {
	name R2_12_47_3_fuse_6;
	phases ABCN;
	from R2_12_47_3_node_59;
	to R2_12_47_3_node_45;
	current_limit 50000;
	status CLOSED;
	mean_replacement_time 3600;
}

object fuse {
	name R2_12_47_3_fuse_7;
	phases ABCN;
	from R2_12_47_3_node_61;
	to R2_12_47_3_node_63;
	current_limit 280;
	status CLOSED;
	mean_replacement_time 3600;
}

object fuse {
	name R2_12_47_3_fuse_8;
	phases CN;
	from R2_12_47_3_node_82;
	to R2_12_47_3_node_81;
	current_limit 280;
	status CLOSED;
	mean_replacement_time 3600;
}

object fuse {
	name R2_12_47_3_fuse_9;
	phases ABCN;
	from R2_12_47_3_node_71;
	to R2_12_47_3_node_72;
	current_limit 200;
	status CLOSED;
	mean_replacement_time 3600;
}

object fuse {
	name R2_12_47_3_fuse_10;
	phases CN;
	from R2_12_47_3_node_71;
	to R2_12_47_3_node_74;
	current_limit 200;
	status CLOSED;
	mean_replacement_time 3600;
}

object fuse {
	name R2_12_47_3_fuse_11;
	phases CN;
	from R2_12_47_3_node_98;
	to R2_12_47_3_node_99;
	current_limit 1200;
	status CLOSED;
	mean_replacement_time 3600;
}

object fuse {
	name R2_12_47_3_fuse_12;
	phases ABCN;
	from R2_12_47_3_node_88;
	to R2_12_47_3_node_89;
	current_limit 200;
	status CLOSED;
	mean_replacement_time 3600;
}

object fuse {
	name R2_12_47_3_fuse_13;
	phases ABCN;
	from R2_12_47_3_node_90;
	to R2_12_47_3_node_91;
	current_limit 999999;
	status CLOSED;
	mean_replacement_time 3600;
}

object fuse {
	name R2_12_47_3_fuse_14;
	phases AN;
	from R2_12_47_3_node_148;
	to R2_12_47_3_node_120;
	current_limit 999999;
	status CLOSED;
	mean_replacement_time 3600;
}

object fuse {
	name R2_12_47_3_fuse_15;
	phases ABCN;
	from R2_12_47_3_node_146;
	to R2_12_47_3_node_114;
	current_limit 280;
	status CLOSED;
	mean_replacement_time 3600;
}

object fuse {
	name R2_12_47_3_fuse_16;
	phases ABCN;
	from R2_12_47_3_node_145;
	to R2_12_47_3_node_149;
	current_limit 400;
	status CLOSED;
	mean_replacement_time 3600;
}

object fuse {
	name R2_12_47_3_fuse_17;
	phases CN;
	from R2_12_47_3_node_171;
	to R2_12_47_3_node_170;
	current_limit 280;
	status CLOSED;
	mean_replacement_time 3600;
}

object fuse {
	name R2_12_47_3_fuse_18;
	phases ABCN;
	from R2_12_47_3_node_749;
	to R2_12_47_3_node_748;
	current_limit 999999;
	status CLOSED;
	mean_replacement_time 3600;
}

object fuse {
	name R2_12_47_3_fuse_19;
	phases ABCN;
	from R2_12_47_3_node_757;
	to R2_12_47_3_node_776;
	current_limit 50000;
	status CLOSED;
	mean_replacement_time 3600;
}

object fuse {
	name R2_12_47_3_fuse_20;
	phases BN;
	from R2_12_47_3_node_214;
	to R2_12_47_3_node_209;
	current_limit 2000;
	status CLOSED;
	mean_replacement_time 3600;
}

object fuse {
	name R2_12_47_3_fuse_21;
	phases ABCN;
	from R2_12_47_3_node_215;
	to R2_12_47_3_node_243;
	current_limit 800;
	status CLOSED;
	mean_replacement_time 3600;
}

object fuse {
	name R2_12_47_3_fuse_22;
	phases ABCN;
	from R2_12_47_3_node_216;
	to R2_12_47_3_node_212;
	current_limit 1200;
	status CLOSED;
	mean_replacement_time 3600;
}

object fuse {
	name R2_12_47_3_fuse_23;
	phases CN;
	from R2_12_47_3_node_70;
	to R2_12_47_3_node_222;
	current_limit 280;
	status CLOSED;
	mean_replacement_time 3600;
}

object fuse {
	name R2_12_47_3_fuse_24;
	phases ACN;
	from R2_12_47_3_node_68;
	to R2_12_47_3_node_236;
	current_limit 2000;
	status CLOSED;
	mean_replacement_time 3600;
}

object fuse {
	name R2_12_47_3_fuse_25;
	phases CN;
	from R2_12_47_3_node_54;
	to R2_12_47_3_node_32;
	current_limit 999999;
	status CLOSED;
	mean_replacement_time 3600;
}

object fuse {
	name R2_12_47_3_fuse_26;
	phases CN;
	from R2_12_47_3_node_90;
	to R2_12_47_3_node_242;
	current_limit 1200;
	status CLOSED;
	mean_replacement_time 3600;
}

object fuse {
	name R2_12_47_3_fuse_27;
	phases CN;
	from R2_12_47_3_node_105;
	to R2_12_47_3_node_512;
	current_limit 1200;
	status CLOSED;
	mean_replacement_time 3600;
}

object fuse {
	name R2_12_47_3_fuse_28;
	phases CN;
	from R2_12_47_3_node_107;
	to R2_12_47_3_node_253;
	current_limit 1200;
	status CLOSED;
	mean_replacement_time 3600;
}

object fuse {
	name R2_12_47_3_fuse_29;
	phases ABCN;
	from R2_12_47_3_node_7;
	to R2_12_47_3_node_8;
	current_limit 560;
	status CLOSED;
	mean_replacement_time 3600;
}

object fuse {
	name R2_12_47_3_fuse_30;
	phases ABCN;
	from R2_12_47_3_node_294;
	to R2_12_47_3_node_297;
	current_limit 999999;
	status CLOSED;
	mean_replacement_time 3600;
}

object fuse {
	name R2_12_47_3_fuse_31;
	phases ABCN;
	from R2_12_47_3_node_294;
	to R2_12_47_3_node_298;
	current_limit 2000;
	status CLOSED;
	mean_replacement_time 3600;
}

object fuse {
	name R2_12_47_3_fuse_32;
	phases ABCN;
	from R2_12_47_3_node_467;
	to R2_12_47_3_node_469;
	current_limit 999999;
	status CLOSED;
	mean_replacement_time 3600;
}

object fuse {
	name R2_12_47_3_fuse_33;
	phases AN;
	from R2_12_47_3_node_467;
	to R2_12_47_3_node_471;
	current_limit 200;
	status CLOSED;
	mean_replacement_time 3600;
}

object fuse {
	name R2_12_47_3_fuse_34;
	phases AN;
	from R2_12_47_3_node_473;
	to R2_12_47_3_node_475;
	current_limit 200;
	status CLOSED;
	mean_replacement_time 3600;
}

object fuse {
	name R2_12_47_3_fuse_35;
	phases ABCN;
	from R2_12_47_3_node_454;
	to R2_12_47_3_node_517;
	current_limit 999999;
	status CLOSED;
	mean_replacement_time 3600;
}

object fuse {
	name R2_12_47_3_fuse_36;
	phases ABCN;
	from R2_12_47_3_node_632;
	to R2_12_47_3_node_811;
	current_limit 50000;
	status CLOSED;
	mean_replacement_time 3600;
}

object fuse {
	name R2_12_47_3_fuse_37;
	phases ABCN;
	from R2_12_47_3_node_632;
	to R2_12_47_3_node_635;
	current_limit 50000;
	status CLOSED;
	mean_replacement_time 3600;
}

object fuse {
	name R2_12_47_3_fuse_38;
	phases ABCN;
	from R2_12_47_3_node_645;
	to R2_12_47_3_node_807;
	current_limit 50000;
	status CLOSED;
	mean_replacement_time 3600;
}

object fuse {
	name R2_12_47_3_fuse_39;
	phases ABCN;
	from R2_12_47_3_node_645;
	to R2_12_47_3_node_646;
	current_limit 50000;
	status CLOSED;
	mean_replacement_time 3600;
}

object fuse {
	name R2_12_47_3_fuse_40;
	phases ABCN;
	from R2_12_47_3_node_650;
	to R2_12_47_3_node_815;
	current_limit 50000;
	status CLOSED;
	mean_replacement_time 3600;
}

object fuse {
	name R2_12_47_3_fuse_41;
	phases ABCN;
	from R2_12_47_3_node_685;
	to R2_12_47_3_node_684;
	current_limit 999999;
	status CLOSED;
	mean_replacement_time 3600;
}

object switch {
	name R2_12_47_3_switch_1;
	phases BN;
	from R2_12_47_3_node_280;
	to R2_12_47_3_node_767;
	status CLOSED;
}

object switch {
	name R2_12_47_3_switch_2;
	phases ABCN;
	from R2_12_47_3_node_281;
	to R2_12_47_3_node_331;
	status CLOSED;
}

object switch {
	name R2_12_47_3_switch_3;
	phases CN;
	from R2_12_47_3_node_338;
	to R2_12_47_3_node_768;
	status CLOSED;
}

object switch {
	name R2_12_47_3_switch_4;
	phases ABCN;
	from R2_12_47_3_node_13;
	to R2_12_47_3_node_494;
	status CLOSED;
}

object switch {
	name R2_12_47_3_switch_5;
	phases BN;
	from R2_12_47_3_node_581;
	to R2_12_47_3_node_498;
	status CLOSED;
}

object switch {
	name R2_12_47_3_switch_6;
	phases ABCN;
	from R2_12_47_3_node_55;
	to R2_12_47_3_node_54;
	status CLOSED;
}

object switch {
	name R2_12_47_3_switch_7;
	phases ABCN;
	from R2_12_47_3_node_76;
	to R2_12_47_3_node_77;
	status CLOSED;
}

object switch {
	name R2_12_47_3_switch_8;
	phases ABCN;
	from R2_12_47_3_node_78;
	to R2_12_47_3_node_85;
	status CLOSED;
}

object switch {
	name R2_12_47_3_switch_9;
	phases ABCN;
	from R2_12_47_3_node_84;
	to R2_12_47_3_node_83;
	status CLOSED;
}

object switch {
	name R2_12_47_3_switch_10;
	phases AN;
	from R2_12_47_3_node_31;
	to R2_12_47_3_node_772;
	status CLOSED;
}

object switch {
	name R2_12_47_3_switch_11;
	phases ABCN;
	from R2_12_47_3_node_747;
	to R2_12_47_3_node_749;
	status CLOSED;
}

object switch {
	name R2_12_47_3_switch_12;
	phases ABCN;
	from R2_12_47_3_node_750;
	to R2_12_47_3_node_775;
	status CLOSED;
}

object switch {
	name R2_12_47_3_switch_13;
	phases ABCN;
	from R2_12_47_3_node_749;
	to R2_12_47_3_node_753;
	status CLOSED;
}

object switch {
	name R2_12_47_3_switch_14;
	phases ABCN;
	from R2_12_47_3_node_755;
	to R2_12_47_3_node_756;
	status CLOSED;
}

object switch {
	name R2_12_47_3_switch_15;
	phases ABCN;
	from R2_12_47_3_node_756;
	to R2_12_47_3_node_758;
	status CLOSED;
}

object switch {
	name R2_12_47_3_switch_16;
	phases ABCN;
	from R2_12_47_3_node_756;
	to R2_12_47_3_node_759;
	status CLOSED;
}

object switch {
	name R2_12_47_3_switch_17;
	phases BN;
	from R2_12_47_3_node_179;
	to R2_12_47_3_node_180;
	status CLOSED;
}

object switch {
	name R2_12_47_3_switch_18;
	phases AN;
	from R2_12_47_3_node_181;
	to R2_12_47_3_node_166;
	status CLOSED;
}

object switch {
	name R2_12_47_3_switch_19;
	phases ABCN;
	from R2_12_47_3_node_27;
	to R2_12_47_3_node_221;
	status CLOSED;
}

object switch {
	name R2_12_47_3_switch_20;
	phases ABCN;
	from R2_12_47_3_node_154;
	to R2_12_47_3_node_153;
	status CLOSED;
}

object switch {
	name R2_12_47_3_switch_21;
	phases ABCN;
	from R2_12_47_3_node_262;
	to R2_12_47_3_node_263;
	status CLOSED;
}

object switch {
	name R2_12_47_3_switch_22;
	phases CN;
	from R2_12_47_3_node_29;
	to R2_12_47_3_node_241;
	status CLOSED;
}

object switch {
	name R2_12_47_3_switch_23;
	phases CN;
	from R2_12_47_3_node_30;
	to R2_12_47_3_node_29;
	status CLOSED;
}

object switch {
	name R2_12_47_3_switch_24;
	phases CN;
	from R2_12_47_3_node_256;
	to R2_12_47_3_node_255;
	status CLOSED;
}

object switch {
	name R2_12_47_3_switch_25;
	phases ABCN;
	from R2_12_47_3_node_5;
	to R2_12_47_3_node_6;
	status CLOSED;
}

object switch {
	name R2_12_47_3_switch_26;
	phases ABCN;
	from R2_12_47_3_node_289;
	to R2_12_47_3_node_288;
	status CLOSED;
}

object switch {
	name R2_12_47_3_switch_27;
	phases ABCN;
	from R2_12_47_3_node_290;
	to R2_12_47_3_node_289;
	status CLOSED;
}

object switch {
	name R2_12_47_3_switch_28;
	phases ABCN;
	from R2_12_47_3_node_289;
	to R2_12_47_3_node_291;
	status CLOSED;
}

object switch {
	name R2_12_47_3_switch_29;
	phases ABCN;
	from R2_12_47_3_node_293;
	to R2_12_47_3_node_294;
	status CLOSED;
}

object switch {
	name R2_12_47_3_switch_30;
	phases ABCN;
	from R2_12_47_3_node_294;
	to R2_12_47_3_node_295;
	status CLOSED;
}

object switch {
	name R2_12_47_3_switch_31;
	phases BN;
	from R2_12_47_3_node_304;
	to R2_12_47_3_node_780;
	status CLOSED;
}

object switch {
	name R2_12_47_3_switch_32;
	phases CN;
	from R2_12_47_3_node_306;
	to R2_12_47_3_node_307;
	status CLOSED;
}

object switch {
	name R2_12_47_3_switch_33;
	phases CN;
	from R2_12_47_3_node_308;
	to R2_12_47_3_node_309;
	status CLOSED;
}

object switch {
	name R2_12_47_3_switch_34;
	phases CN;
	from R2_12_47_3_node_318;
	to R2_12_47_3_node_319;
	status CLOSED;
}

object switch {
	name R2_12_47_3_switch_35;
	phases CN;
	from R2_12_47_3_node_328;
	to R2_12_47_3_node_329;
	status CLOSED;
}

object switch {
	name R2_12_47_3_switch_36;
	phases CN;
	from R2_12_47_3_node_306;
	to R2_12_47_3_node_380;
	status CLOSED;
}

object switch {
	name R2_12_47_3_switch_37;
	phases ABCN;
	from R2_12_47_3_node_381;
	to R2_12_47_3_node_382;
	status CLOSED;
}

object switch {
	name R2_12_47_3_switch_38;
	phases BN;
	from R2_12_47_3_node_389;
	to R2_12_47_3_node_787;
	status CLOSED;
}

object switch {
	name R2_12_47_3_switch_39;
	phases BN;
	from R2_12_47_3_node_390;
	to R2_12_47_3_node_399;
	status CLOSED;
}

object switch {
	name R2_12_47_3_switch_40;
	phases ABCN;
	from R2_12_47_3_node_414;
	to R2_12_47_3_node_403;
	status CLOSED;
}

object switch {
	name R2_12_47_3_switch_41;
	phases ABCN;
	from R2_12_47_3_node_420;
	to R2_12_47_3_node_414;
	status CLOSED;
}

object switch {
	name R2_12_47_3_switch_42;
	phases BN;
	from R2_12_47_3_node_531;
	to R2_12_47_3_node_791;
	status CLOSED;
}

object switch {
	name R2_12_47_3_switch_43;
	phases CN;
	from R2_12_47_3_node_531;
	to R2_12_47_3_node_792;
	status CLOSED;
}

object switch {
	name R2_12_47_3_switch_44;
	phases AN;
	from R2_12_47_3_node_435;
	to R2_12_47_3_node_436;
	status CLOSED;
}

object switch {
	name R2_12_47_3_switch_45;
	phases BN;
	from R2_12_47_3_node_435;
	to R2_12_47_3_node_437;
	status CLOSED;
}

object switch {
	name R2_12_47_3_switch_46;
	phases AN;
	from R2_12_47_3_node_445;
	to R2_12_47_3_node_447;
	status CLOSED;
}

object switch {
	name R2_12_47_3_switch_47;
	phases ABCN;
	from R2_12_47_3_node_451;
	to R2_12_47_3_node_433;
	status CLOSED;
}

object switch {
	name R2_12_47_3_switch_48;
	phases ABCN;
	from R2_12_47_3_node_451;
	to R2_12_47_3_node_453;
	status CLOSED;
}

object switch {
	name R2_12_47_3_switch_49;
	phases ABCN;
	from R2_12_47_3_node_454;
	to R2_12_47_3_node_518;
	status CLOSED;
}

object switch {
	name R2_12_47_3_switch_50;
	phases ABCN;
	from R2_12_47_3_node_288;
	to R2_12_47_3_node_465;
	status CLOSED;
}

object switch {
	name R2_12_47_3_switch_51;
	phases ABCN;
	from R2_12_47_3_node_468;
	to R2_12_47_3_node_467;
	status CLOSED;
}

object switch {
	name R2_12_47_3_switch_52;
	phases ABCN;
	from R2_12_47_3_node_467;
	to R2_12_47_3_node_472;
	status CLOSED;
}

object switch {
	name R2_12_47_3_switch_53;
	phases BN;
	from R2_12_47_3_node_514;
	to R2_12_47_3_node_515;
	status CLOSED;
}

object switch {
	name R2_12_47_3_switch_54;
	phases ABCN;
	from R2_12_47_3_node_516;
	to R2_12_47_3_node_454;
	status CLOSED;
}

object switch {
	name R2_12_47_3_switch_55;
	phases ABCN;
	from R2_12_47_3_node_454;
	to R2_12_47_3_node_519;
	status CLOSED;
}

object switch {
	name R2_12_47_3_switch_56;
	phases ABCN;
	from R2_12_47_3_node_529;
	to R2_12_47_3_node_800;
	status CLOSED;
}

object switch {
	name R2_12_47_3_switch_57;
	phases AN;
	from R2_12_47_3_node_543;
	to R2_12_47_3_node_544;
	status CLOSED;
}

object switch {
	name R2_12_47_3_switch_58;
	phases ABCN;
	from R2_12_47_3_node_558;
	to R2_12_47_3_node_803;
	status CLOSED;
}

object switch {
	name R2_12_47_3_switch_59;
	phases BN;
	from R2_12_47_3_node_571;
	to R2_12_47_3_node_827;
	status CLOSED;
}

object switch {
	name R2_12_47_3_switch_60;
	phases BN;
	from R2_12_47_3_node_572;
	to R2_12_47_3_node_804;
	status CLOSED;
}

object switch {
	name R2_12_47_3_switch_61;
	phases ABCN;
	from R2_12_47_3_node_566;
	to R2_12_47_3_node_590;
	status CLOSED;
}

object switch {
	name R2_12_47_3_switch_62;
	phases CN;
	from R2_12_47_3_node_595;
	to R2_12_47_3_node_598;
	status CLOSED;
}

object switch {
	name R2_12_47_3_switch_63;
	phases CN;
	from R2_12_47_3_node_597;
	to R2_12_47_3_node_828;
	status CLOSED;
}

object switch {
	name R2_12_47_3_switch_64;
	phases AN;
	from R2_12_47_3_node_602;
	to R2_12_47_3_node_614;
	status CLOSED;
}

object switch {
	name R2_12_47_3_switch_65;
	phases ABCN;
	from R2_12_47_3_node_608;
	to R2_12_47_3_node_829;
	status CLOSED;
}

object switch {
	name R2_12_47_3_switch_66;
	phases AN;
	from R2_12_47_3_node_612;
	to R2_12_47_3_node_808;
	status CLOSED;
}

object switch {
	name R2_12_47_3_switch_67;
	phases ABCN;
	from R2_12_47_3_node_623;
	to R2_12_47_3_node_604;
	status CLOSED;
}

object switch {
	name R2_12_47_3_switch_68;
	phases BN;
	from R2_12_47_3_node_625;
	to R2_12_47_3_node_626;
	status CLOSED;
}

object switch {
	name R2_12_47_3_switch_69;
	phases ABCN;
	from R2_12_47_3_node_524;
	to R2_12_47_3_node_632;
	status CLOSED;
}

object switch {
	name R2_12_47_3_switch_70;
	phases ABCN;
	from R2_12_47_3_node_632;
	to R2_12_47_3_node_633;
	status CLOSED;
}

object switch {
	name R2_12_47_3_switch_71;
	phases ABCN;
	from R2_12_47_3_node_644;
	to R2_12_47_3_node_645;
	status CLOSED;
}

object switch {
	name R2_12_47_3_switch_72;
	phases ABCN;
	from R2_12_47_3_node_650;
	to R2_12_47_3_node_649;
	status CLOSED;
}

object switch {
	name R2_12_47_3_switch_73;
	phases CN;
	from R2_12_47_3_node_656;
	to R2_12_47_3_node_813;
	status CLOSED;
}

object switch {
	name R2_12_47_3_switch_74;
	phases BN;
	from R2_12_47_3_node_657;
	to R2_12_47_3_node_669;
	status CLOSED;
}

object switch {
	name R2_12_47_3_switch_75;
	phases ACN;
	from R2_12_47_3_node_660;
	to R2_12_47_3_node_673;
	status CLOSED;
}

object switch {
	name R2_12_47_3_switch_76;
	phases BN;
	from R2_12_47_3_node_666;
	to R2_12_47_3_node_681;
	status CLOSED;
}

...